[General]



network = TestFalconNetworkIntegration
sim-time-limit = 10ms
simtime-resolution = ns

*.host[0].host_id = "host0"
*.host[0].host_ip = "2001:db8:85a2::1"

*.host[1].host_id = "host1"
*.host[1].host_ip = "2001:db8:85a3::1"

*.router.routing_table = "isekai/test_data/single_switch_routing_table.recordio"

*.simulation_config = "isekai/test_data/falcon_simple_integration_solicitation_write_bidirectional_config.pb.txt"
