[General]



network = TestFalconNetworkNdv6Flows
sim-time-limit = 10ms
simtime-resolution = ns

*.host[0].host_id = "host_101_39"
*.host[0].host_ip = "fc00:0100:500:ae8::1"

*.host[1].host_id = "host_101_42"
*.host[1].host_ip = "fc00:0100:500:aeb::1"

*.router.routing_table = "isekai/test_data/routing_ndv6_flows.recordio"

*.simulation_config = "isekai/test_data/ndv6_flows_config.pb.txt"
