[General]



network = TestFalconNetworkInterRack
sim-time-limit = 10ms
simtime-resolution = ns

*.simulation_config = "isekai/test_data/falcon_inter_rack_host_config.pb.txt"

*.routers[*].num_port = 100
*.routers[0].router_name = "router_0"
*.routers[1].router_name = "router_1"
*.routers[2].router_name = "router_2"
*.routers[3].router_name = "router_3"
*.routers[4].router_name = "router_4"
*.routers[5].router_name = "router_5"
*.routers[6].router_name = "router_6"
*.routers[7].router_name = "router_7"
*.routers[8].router_name = "router_8"
*.routers[9].router_name = "router_9"
*.routers[10].router_name = "router_10"
*.routers[11].router_name = "router_11"
*.routers[12].router_name = "router_12"
*.routers[13].router_name = "router_13"
*.routers[14].router_name = "router_14"
*.routers[15].router_name = "router_15"
*.routers[16].router_name = "router_16"
*.routers[17].router_name = "router_17"
*.routers[18].router_name = "router_18"
*.routers[19].router_name = "router_19"
*.routers[20].router_name = "router_20"
*.routers[21].router_name = "router_21"
*.routers[22].router_name = "router_22"
*.routers[23].router_name = "router_23"
*.routers[24].router_name = "router_24"
*.routers[25].router_name = "router_25"
*.routers[26].router_name = "router_26"
*.routers[27].router_name = "router_27"
*.routers[28].router_name = "router_28"
*.routers[29].router_name = "router_29"
*.routers[30].router_name = "router_30"
*.routers[31].router_name = "router_31"
*.routers[32].router_name = "router_32"
*.routers[33].router_name = "router_33"
*.routers[34].router_name = "router_34"
*.routers[35].router_name = "router_35"
*.routers[36].router_name = "router_36"
*.routers[37].router_name = "router_37"
*.routers[38].router_name = "router_38"
*.routers[39].router_name = "router_39"
*.routers[40].router_name = "router_40"
*.routers[41].router_name = "router_41"
*.routers[42].router_name = "router_42"
*.routers[43].router_name = "router_43"
*.routers[44].router_name = "router_44"
*.routers[45].router_name = "router_45"
*.routers[46].router_name = "router_46"
*.routers[47].router_name = "router_47"
*.routers[48].router_name = "router_48"
*.routers[49].router_name = "router_49"
*.routers[50].router_name = "router_50"
*.routers[51].router_name = "router_51"
*.routers[52].router_name = "router_52"
*.routers[53].router_name = "router_53"
*.routers[54].router_name = "router_54"
*.routers[55].router_name = "router_55"
*.routers[56].router_name = "router_56"
*.routers[57].router_name = "router_57"
*.routers[58].router_name = "router_58"
*.routers[59].router_name = "router_59"
*.routers[60].router_name = "router_60"
*.routers[61].router_name = "router_61"
*.routers[62].router_name = "router_62"
*.routers[63].router_name = "router_63"
*.routers[64].router_name = "router_64"
*.routers[65].router_name = "router_65"
*.routers[66].router_name = "router_66"
*.routers[67].router_name = "router_67"
*.routers[68].router_name = "router_68"
*.routers[69].router_name = "router_69"
*.routers[70].router_name = "router_70"
*.routers[71].router_name = "router_71"
*.routers[72].router_name = "router_72"
*.routers[73].router_name = "router_73"
*.routers[74].router_name = "router_74"
*.routers[75].router_name = "router_75"
*.routers[76].router_name = "router_76"
*.routers[77].router_name = "router_77"
*.routers[78].router_name = "router_78"
*.routers[79].router_name = "router_79"
*.routers[80].router_name = "router_80"
*.routers[81].router_name = "router_81"
*.routers[82].router_name = "router_82"
*.routers[83].router_name = "router_83"
*.routers[84].router_name = "router_84"
*.routers[85].router_name = "router_85"
*.routers[86].router_name = "router_86"
*.routers[87].router_name = "router_87"
*.routers[88].router_name = "router_88"
*.routers[89].router_name = "router_89"
*.routers[90].router_name = "router_90"
*.routers[91].router_name = "router_91"
*.routers[92].router_name = "router_92"
*.routers[93].router_name = "router_93"
*.routers[94].router_name = "router_94"
*.routers[95].router_name = "router_95"
*.routers[96].router_name = "router_96"
*.routers[97].router_name = "router_97"
*.routers[98].router_name = "router_98"
*.routers[99].router_name = "router_99"
*.routers[100].router_name = "router_100"
*.routers[101].router_name = "router_101"
*.routers[102].router_name = "router_102"
*.routers[103].router_name = "router_103"
*.routers[104].router_name = "router_104"
*.routers[105].router_name = "router_105"
*.routers[106].router_name = "router_106"
*.routers[107].router_name = "router_107"
*.routers[108].router_name = "router_108"
*.routers[109].router_name = "router_109"
*.routers[110].router_name = "router_110"
*.routers[111].router_name = "router_111"
*.routers[112].router_name = "router_112"
*.routers[113].router_name = "router_113"
*.routers[114].router_name = "router_114"
*.routers[115].router_name = "router_115"
*.routers[116].router_name = "router_116"
*.routers[117].router_name = "router_117"
*.routers[118].router_name = "router_118"
*.routers[119].router_name = "router_119"
*.routers[120].router_name = "router_120"
*.routers[121].router_name = "router_121"
*.routers[122].router_name = "router_122"
*.routers[123].router_name = "router_123"
*.routers[79].routing_table = "isekai/test_data/nib_snapshot/routing_79.recordio"
*.routers[54].routing_table = "isekai/test_data/nib_snapshot/routing_54.recordio"
*.routers[115].routing_table = "isekai/test_data/nib_snapshot/routing_115.recordio"
*.routers[122].routing_table = "isekai/test_data/nib_snapshot/routing_122.recordio"
*.routers[46].routing_table = "isekai/test_data/nib_snapshot/routing_46.recordio"
*.routers[112].routing_table = "isekai/test_data/nib_snapshot/routing_112.recordio"
*.routers[26].routing_table = "isekai/test_data/nib_snapshot/routing_26.recordio"
*.routers[16].routing_table = "isekai/test_data/nib_snapshot/routing_16.recordio"
*.routers[74].routing_table = "isekai/test_data/nib_snapshot/routing_74.recordio"
*.routers[22].routing_table = "isekai/test_data/nib_snapshot/routing_22.recordio"
*.routers[48].routing_table = "isekai/test_data/nib_snapshot/routing_48.recordio"
*.routers[60].routing_table = "isekai/test_data/nib_snapshot/routing_60.recordio"
*.routers[114].routing_table = "isekai/test_data/nib_snapshot/routing_114.recordio"
*.routers[96].routing_table = "isekai/test_data/nib_snapshot/routing_96.recordio"
*.routers[34].routing_table = "isekai/test_data/nib_snapshot/routing_34.recordio"
*.routers[75].routing_table = "isekai/test_data/nib_snapshot/routing_75.recordio"
*.routers[6].routing_table = "isekai/test_data/nib_snapshot/routing_6.recordio"
*.routers[41].routing_table = "isekai/test_data/nib_snapshot/routing_41.recordio"
*.routers[8].routing_table = "isekai/test_data/nib_snapshot/routing_8.recordio"
*.routers[45].routing_table = "isekai/test_data/nib_snapshot/routing_45.recordio"
*.routers[62].routing_table = "isekai/test_data/nib_snapshot/routing_62.recordio"
*.routers[116].routing_table = "isekai/test_data/nib_snapshot/routing_116.recordio"
*.routers[1].routing_table = "isekai/test_data/nib_snapshot/routing_1.recordio"
*.routers[85].routing_table = "isekai/test_data/nib_snapshot/routing_85.recordio"
*.routers[13].routing_table = "isekai/test_data/nib_snapshot/routing_13.recordio"
*.routers[19].routing_table = "isekai/test_data/nib_snapshot/routing_19.recordio"
*.routers[55].routing_table = "isekai/test_data/nib_snapshot/routing_55.recordio"
*.routers[91].routing_table = "isekai/test_data/nib_snapshot/routing_91.recordio"
*.routers[24].routing_table = "isekai/test_data/nib_snapshot/routing_24.recordio"
*.routers[21].routing_table = "isekai/test_data/nib_snapshot/routing_21.recordio"
*.routers[97].routing_table = "isekai/test_data/nib_snapshot/routing_97.recordio"
*.routers[88].routing_table = "isekai/test_data/nib_snapshot/routing_88.recordio"
*.routers[17].routing_table = "isekai/test_data/nib_snapshot/routing_17.recordio"
*.routers[65].routing_table = "isekai/test_data/nib_snapshot/routing_65.recordio"
*.routers[68].routing_table = "isekai/test_data/nib_snapshot/routing_68.recordio"
*.routers[106].routing_table = "isekai/test_data/nib_snapshot/routing_106.recordio"
*.routers[43].routing_table = "isekai/test_data/nib_snapshot/routing_43.recordio"
*.routers[111].routing_table = "isekai/test_data/nib_snapshot/routing_111.recordio"
*.routers[38].routing_table = "isekai/test_data/nib_snapshot/routing_38.recordio"
*.routers[42].routing_table = "isekai/test_data/nib_snapshot/routing_42.recordio"
*.routers[71].routing_table = "isekai/test_data/nib_snapshot/routing_71.recordio"
*.routers[49].routing_table = "isekai/test_data/nib_snapshot/routing_49.recordio"
*.routers[35].routing_table = "isekai/test_data/nib_snapshot/routing_35.recordio"
*.routers[53].routing_table = "isekai/test_data/nib_snapshot/routing_53.recordio"
*.routers[107].routing_table = "isekai/test_data/nib_snapshot/routing_107.recordio"
*.routers[110].routing_table = "isekai/test_data/nib_snapshot/routing_110.recordio"
*.routers[5].routing_table = "isekai/test_data/nib_snapshot/routing_5.recordio"
*.routers[121].routing_table = "isekai/test_data/nib_snapshot/routing_121.recordio"
*.routers[80].routing_table = "isekai/test_data/nib_snapshot/routing_80.recordio"
*.routers[70].routing_table = "isekai/test_data/nib_snapshot/routing_70.recordio"
*.routers[58].routing_table = "isekai/test_data/nib_snapshot/routing_58.recordio"
*.routers[93].routing_table = "isekai/test_data/nib_snapshot/routing_93.recordio"
*.routers[33].routing_table = "isekai/test_data/nib_snapshot/routing_33.recordio"
*.routers[14].routing_table = "isekai/test_data/nib_snapshot/routing_14.recordio"
*.routers[10].routing_table = "isekai/test_data/nib_snapshot/routing_10.recordio"
*.routers[86].routing_table = "isekai/test_data/nib_snapshot/routing_86.recordio"
*.routers[87].routing_table = "isekai/test_data/nib_snapshot/routing_87.recordio"
*.routers[61].routing_table = "isekai/test_data/nib_snapshot/routing_61.recordio"
*.routers[72].routing_table = "isekai/test_data/nib_snapshot/routing_72.recordio"
*.routers[25].routing_table = "isekai/test_data/nib_snapshot/routing_25.recordio"
*.routers[2].routing_table = "isekai/test_data/nib_snapshot/routing_2.recordio"
*.routers[78].routing_table = "isekai/test_data/nib_snapshot/routing_78.recordio"
*.routers[120].routing_table = "isekai/test_data/nib_snapshot/routing_120.recordio"
*.routers[40].routing_table = "isekai/test_data/nib_snapshot/routing_40.recordio"
*.routers[67].routing_table = "isekai/test_data/nib_snapshot/routing_67.recordio"
*.routers[37].routing_table = "isekai/test_data/nib_snapshot/routing_37.recordio"
*.routers[100].routing_table = "isekai/test_data/nib_snapshot/routing_100.recordio"
*.routers[101].routing_table = "isekai/test_data/nib_snapshot/routing_101.recordio"
*.routers[108].routing_table = "isekai/test_data/nib_snapshot/routing_108.recordio"
*.routers[90].routing_table = "isekai/test_data/nib_snapshot/routing_90.recordio"
*.routers[44].routing_table = "isekai/test_data/nib_snapshot/routing_44.recordio"
*.routers[11].routing_table = "isekai/test_data/nib_snapshot/routing_11.recordio"
*.routers[105].routing_table = "isekai/test_data/nib_snapshot/routing_105.recordio"
*.routers[18].routing_table = "isekai/test_data/nib_snapshot/routing_18.recordio"
*.routers[92].routing_table = "isekai/test_data/nib_snapshot/routing_92.recordio"
*.routers[89].routing_table = "isekai/test_data/nib_snapshot/routing_89.recordio"
*.routers[20].routing_table = "isekai/test_data/nib_snapshot/routing_20.recordio"
*.routers[117].routing_table = "isekai/test_data/nib_snapshot/routing_117.recordio"
*.routers[36].routing_table = "isekai/test_data/nib_snapshot/routing_36.recordio"
*.routers[109].routing_table = "isekai/test_data/nib_snapshot/routing_109.recordio"
*.routers[76].routing_table = "isekai/test_data/nib_snapshot/routing_76.recordio"
*.routers[59].routing_table = "isekai/test_data/nib_snapshot/routing_59.recordio"
*.routers[27].routing_table = "isekai/test_data/nib_snapshot/routing_27.recordio"
*.routers[51].routing_table = "isekai/test_data/nib_snapshot/routing_51.recordio"
*.routers[66].routing_table = "isekai/test_data/nib_snapshot/routing_66.recordio"
*.routers[113].routing_table = "isekai/test_data/nib_snapshot/routing_113.recordio"
*.routers[123].routing_table = "isekai/test_data/nib_snapshot/routing_123.recordio"
*.routers[3].routing_table = "isekai/test_data/nib_snapshot/routing_3.recordio"
*.routers[12].routing_table = "isekai/test_data/nib_snapshot/routing_12.recordio"
*.routers[7].routing_table = "isekai/test_data/nib_snapshot/routing_7.recordio"
*.routers[95].routing_table = "isekai/test_data/nib_snapshot/routing_95.recordio"
*.routers[56].routing_table = "isekai/test_data/nib_snapshot/routing_56.recordio"
*.routers[118].routing_table = "isekai/test_data/nib_snapshot/routing_118.recordio"
*.routers[102].routing_table = "isekai/test_data/nib_snapshot/routing_102.recordio"
*.routers[119].routing_table = "isekai/test_data/nib_snapshot/routing_119.recordio"
*.routers[0].routing_table = "isekai/test_data/nib_snapshot/routing_0.recordio"
*.routers[73].routing_table = "isekai/test_data/nib_snapshot/routing_73.recordio"
*.routers[81].routing_table = "isekai/test_data/nib_snapshot/routing_81.recordio"
*.routers[83].routing_table = "isekai/test_data/nib_snapshot/routing_83.recordio"
*.routers[99].routing_table = "isekai/test_data/nib_snapshot/routing_99.recordio"
*.routers[94].routing_table = "isekai/test_data/nib_snapshot/routing_94.recordio"
*.routers[50].routing_table = "isekai/test_data/nib_snapshot/routing_50.recordio"
*.routers[103].routing_table = "isekai/test_data/nib_snapshot/routing_103.recordio"
*.routers[104].routing_table = "isekai/test_data/nib_snapshot/routing_104.recordio"
*.routers[30].routing_table = "isekai/test_data/nib_snapshot/routing_30.recordio"
*.routers[52].routing_table = "isekai/test_data/nib_snapshot/routing_52.recordio"
*.routers[64].routing_table = "isekai/test_data/nib_snapshot/routing_64.recordio"
*.routers[57].routing_table = "isekai/test_data/nib_snapshot/routing_57.recordio"
*.routers[77].routing_table = "isekai/test_data/nib_snapshot/routing_77.recordio"
*.routers[47].routing_table = "isekai/test_data/nib_snapshot/routing_47.recordio"
*.routers[69].routing_table = "isekai/test_data/nib_snapshot/routing_69.recordio"
*.routers[84].routing_table = "isekai/test_data/nib_snapshot/routing_84.recordio"
*.routers[32].routing_table = "isekai/test_data/nib_snapshot/routing_32.recordio"
*.routers[15].routing_table = "isekai/test_data/nib_snapshot/routing_15.recordio"
*.routers[23].routing_table = "isekai/test_data/nib_snapshot/routing_23.recordio"
*.routers[4].routing_table = "isekai/test_data/nib_snapshot/routing_4.recordio"
*.routers[98].routing_table = "isekai/test_data/nib_snapshot/routing_98.recordio"
*.routers[63].routing_table = "isekai/test_data/nib_snapshot/routing_63.recordio"
*.routers[31].routing_table = "isekai/test_data/nib_snapshot/routing_31.recordio"
*.routers[9].routing_table = "isekai/test_data/nib_snapshot/routing_9.recordio"
*.routers[82].routing_table = "isekai/test_data/nib_snapshot/routing_82.recordio"
*.routers[29].routing_table = "isekai/test_data/nib_snapshot/routing_29.recordio"
*.routers[39].routing_table = "isekai/test_data/nib_snapshot/routing_39.recordio"
*.routers[28].routing_table = "isekai/test_data/nib_snapshot/routing_28.recordio"
