[General]
network = SingleRackNetwork
sim-time-limit = 100ms
simtime-resolution = ns

*.simulation_config = "examples/single_rack_simulation_config.pb.txt"
